[TITLE]
;;Project Title/Notes
Proyecto de drenaje pluvial de la
localidad de Caviahue para calles Los Ã‘ires, 8 de abril y Quimey Co

[OPTIONS]
;;Option             Value
FLOW_UNITS           CMS
INFILTRATION         CURVE_NUMBER
FLOW_ROUTING         DYNWAVE
LINK_OFFSETS         DEPTH
MIN_SLOPE            0
ALLOW_PONDING        YES
SKIP_STEADY_STATE    NO

START_DATE           01/01/2024
START_TIME           00:00:00
REPORT_START_DATE    01/01/2024
REPORT_START_TIME    00:00:00
END_DATE             01/02/2024
END_TIME             23:00:00
SWEEP_START          01/01
SWEEP_END            12/31
DRY_DAYS             0
REPORT_STEP          00:05:00
WET_STEP             00:00:05
DRY_STEP             00:00:05
ROUTING_STEP         0:00:01 
RULE_STEP            00:00:00

INERTIAL_DAMPING     PARTIAL
NORMAL_FLOW_LIMITED  BOTH
FORCE_MAIN_EQUATION  H-W
VARIABLE_STEP        0.00
LENGTHENING_STEP     60
MIN_SURFAREA         1.167
MAX_TRIALS           8
HEAD_TOLERANCE       0.0015
SYS_FLOW_TOL         5
LAT_FLOW_TOL         5
MINIMUM_STEP         0.5
THREADS              1

[EVAPORATION]
;;Data Source    Parameters
;;-------------- ----------------
CONSTANT         0.0
DRY_ONLY         NO

[RAINGAGES]
;;Name           Format    Interval SCF      Source    
;;-------------- --------- ------ ------ ----------
;Hietograma_de_Diseï¿½o
TD               CUMULATIVE 1:12     1.0      TIMESERIES TR10-IDF-24h_Chos_Malal

[SUBCATCHMENTS]
;;Name           Rain Gage        Outlet           Area     %Imperv  Width    %Slope   CurbLen  SnowPack        
;;-------------- ---------------- ---------------- -------- -------- -------- -------- -------- ----------------
CR05b            TD               Jun-276          2.563230 25.00    150      18.45    0                        
CR06a            TD               Jun-369          3.714619 29.00    315.36   20.80    0                        
CR06b            TD               CU_17            2.930595 25.00    150      22.66    0                        
CR07             TD               CU_24            3.450070 24.00    1033.91  14.13    0                        
CU_01            TD               *Lï¿½_01         0.261402 20       110      2.25     0                        
CU_02            TD               *Lï¿½03_C2_03    0.254788 25.00    90       1.35     0                        
CU_03            TD               Jun-353          0.217099 19       105      2.43     0                        
CU_04            TD               *                0.482462 35       200      1.03     0                        
CU_05            TD               *Lï¿½03_02       0.344903 25       135      1.22     0                        
CU_06            TD               Jun-228          0.552050 10.00    89.79    1.58     0                        
CU_07            TD               Jun-275          0.291272 19       75       2.03     0                        
CU_08            TD               *                0.275202 29       100      0.46     0                        
CU_09            TD               Jun-359          0.170762 30       80       1.78     0                        
CU_10            TD               Jun-272          0.251357 25.00    100      1.84     0                        
CU_11            TD               *Lï¿½03_C4_01    0.527166 25.00    140      3.37     0                        
CU_12            TD               *                0.260644 29       75       0.46     0                        
CU_13            TD               Jun-263          0.156731 20       80       0.8      0                        
CU_14            TD               *Lï¿½03_C7_01    0.318965 25.00    120      0.7      0                        
CU_15            TD               *Lï¿½03_C6_01    0.297083 25.00    150      1.09     0                        
CU_16            TD               Jun-238          0.253315 25.00    150      1.9      0                        
CU_17            TD               Jun-234          0.674062 20       200      2.37     0                        
CU_18            TD               Jun-237          0.241927 29       80       1.45     0                        
CU_19            TD               Jun-269          0.439743 20       120      1.63     0                        
CU_20            TD               Jun-249          0.421654 25.00    150      1.07     0                        
CU_21            TD               Jun-248          0.222344 26       80       1.86     0                        
CU_22            TD               Jun-244          0.254028 15       100      2.45     0                        
CU_23            TD               Jun-267          0.245743 15       100      1.64     0                        
CU_24            TD               *Lï¿½02_01       1.703363 15       150      2.23     0                        
CU_25            TD               *                0.413256 25       150      0.5      0                        
CU_26            TD               *Lï¿½03_05       0.225161 29       80       0.79     0                        
CU_27            TD               Jun-251          0.576092 19       180      0.62     0                        
CU_28            TD               Jun-266          0.360896 25.00    34.08    1.50     0                        
CU_29            TD               *Lï¿½02_06       0.230493 35       150      0.5000   0                        
CU_30            TD               *Lï¿½02_03(Alc16_ab) 0.302114 19       105      1.79     0                        
CU_31            TD               *Lï¿½02_02(Alc16_ar) 1.004227 15       150      2.25     0                        
CU_32            TD               Jun-361          0.713723 19       80       1.51     0                        
CU_33            TD               *                0.759782 25       150      0.5      0                        
CU_34            TD               *                0.613548 25       150      0.5      0                        
CU_35            TD               *                0.711152 25       150      0.5      0                        
CU_36            TD               *                1.011689 25       150      0.5      0                        
CU_37            TD               *                0.607117 25       150      0.5      0                        
CU_38            TD               Jun-311          0.315546 29       50       1.41     0                        
CU_39            TD               Jun-312          0.231904 30       105      1.25     0                        
CU_40            TD               Jun-312          0.286321 29       45       1.6      0                        
CU_41            TD               Jun-312          0.458336 20       65       1.10     0                        
CU_42            TD               Jun-347          0.651106 30       180      1.87     0                        
CU_43            TD               Jun-315          0.876350 29       150      1.47     0                        
CU_44            TD               Jun-351          0.553954 18       78.29    2.14     0                        
CU_45            TD               Jun-341          2.101500 8.00     180      2.7900   0                        
CU_46            TD               Jun-350          0.560529 25       120      1.47     0                        
CU_47            TD               Jun-317          0.311722 19       100      1.05     0                        
CU_48            TD               Jun-317          0.747927 28       150      1.35     0                        
CU_49            TD               Jun-342          0.761027 25       150      0.5      0                        
CU_50            TD               Jun-370          0.533928 15       147      0.74     0                        
CU_51            TD               Jun-318          0.969701 17       85       0.94     0                        
CU_52            TD               Jun-336          1.160116 5        240      0.5      0                        
CU_53            TD               CU_52            0.532051 25       150      0.5      0                        
CU_54            TD               Jun-344          0.283817 5        160      0.54     0                        
CU_55            TD               Jun-348          0.577985 5        150      0.28     0                        
CU_57            TD               Jun-331          0.147981 5        110      0.5      0                        
CU_58            TD               Jun-329          0.159811 5        110      0.5      0                        
CU_59            TD               Jun-326          0.521419 15       150      0.48     0                        
CU_60            TD               *                0.333161 19       75       0.64     0                        
CU_61            TD               *                0.415746 15       70       0.71     0                        
CU_62            TD               *Lï¿½03_04       0.134051 30       80       0.18     0                        
CU_63            TD               Jun-354          0.168523 25.00    150      0.5000   0                        

[SUBAREAS]
;;Subcatchment   N-Imperv   N-Perv     S-Imperv   S-Perv     PctZero    RouteTo    PctRouted 
;;-------------- ---------- ---------- ---------- ---------- ---------- ---------- ----------
CR05b            0.0130     0.0500     2.00       5.00       25         OUTLET    
CR06a            0.0130     0.0500     2.00       5.00       25         OUTLET    
CR06b            0.0150     0.1000     2.00       5.00       25         OUTLET    
CR07             0.0130     0.0500     2.00       5.00       25         OUTLET    
CU_01            0.0150     0.2000     2.00       5.00       25         OUTLET    
CU_02            0.0150     0.1000     2.00       5.00       25         OUTLET    
CU_03            0.0150     0.1000     2.00       5.00       25         OUTLET    
CU_04            0.0150     0.1000     2.00       5.00       25         OUTLET    
CU_05            0.0150     0.1000     2.00       5.00       25         OUTLET    
CU_06            0.0150     0.1000     2.00       5.00       25         OUTLET    
CU_07            0.0150     0.1000     2.00       5.00       25         OUTLET    
CU_08            0.015      0.1        2.00       5.00       25         OUTLET    
CU_09            0.0150     0.1000     2.00       5.00       50         OUTLET    
CU_10            0.0150     0.1000     2.00       5.00       25         OUTLET    
CU_11            0.0150     0.1000     2.00       5.00       25         OUTLET    
CU_12            0.015      0.1        2.00       5.00       25         OUTLET    
CU_13            0.0150     0.1000     2.00       5.00       25         OUTLET    
CU_14            0.0150     0.1000     2.00       5.00       25         OUTLET    
CU_15            0.0150     0.1000     2.00       5.00       25         OUTLET    
CU_16            0.0150     0.1000     2.00       5.00       25         OUTLET    
CU_17            0.0150     0.1000     2.00       5.00       25         OUTLET    
CU_18            0.0150     0.1000     2.00       5.00       25         OUTLET    
CU_19            0.0150     0.1        2.00       5.00       25         OUTLET    
CU_20            0.0150     0.1000     2.00       5.00       25         OUTLET    
CU_21            0.0150     0.1000     2.00       5.00       25         OUTLET    
CU_22            0.0150     0.1000     2.00       5.00       25         OUTLET    
CU_23            0.0150     0.1000     2.00       5.00       25         OUTLET    
CU_24            0.0150     0.1000     2.00       5.00       25         OUTLET    
CU_25            0.015      0.1        2.00       5.00       25         OUTLET    
CU_26            0.0150     0.1000     2.00       5.00       25         OUTLET    
CU_27            0.0150     0.1000     2.00       5.00       25         OUTLET    
CU_28            0.0150     0.1000     2.00       5.00       25         OUTLET    
CU_29            0.0150     0.1000     2.00       5.00       25         OUTLET    
CU_30            0.0150     0.1000     2.00       5.00       25         OUTLET    
CU_31            0.0150     0.1000     2.00       5.00       25         OUTLET    
CU_32            0.015      0.1        2.00       5.00       25         OUTLET    
CU_33            0.015      0.1        2.00       5.00       25         OUTLET    
CU_34            0.015      0.1        2.00       5.00       25         OUTLET    
CU_35            0.015      0.1        2.00       5.00       25         OUTLET    
CU_36            0.015      0.1        2.00       5.00       25         OUTLET    
CU_37            0.015      0.1        2.00       5.00       25         OUTLET    
CU_38            0.015      0.1        2.00       5.00       25         OUTLET    
CU_39            0.015      0.1        2.00       5.00       25         OUTLET    
CU_40            0.015      0.1        2.00       5.00       25         OUTLET    
CU_41            0.015      0.1        2.00       5.00       25         OUTLET    
CU_42            0.015      0.1        2.00       5.00       25         OUTLET    
CU_43            0.015      0.1        2.00       5.00       25         OUTLET    
CU_44            0.015      0.1        2.00       5.00       25         OUTLET    
CU_45            0.0150     0.2000     2.00       5.00       25         OUTLET    
CU_46            0.015      0.1        2.00       5.00       25         OUTLET    
CU_47            0.015      0.1        2.00       5.00       25         OUTLET    
CU_48            0.015      0.1        2.00       5.00       25         OUTLET    
CU_49            0.015      0.1        2.00       5.00       25         OUTLET    
CU_50            0.015      0.1        2.00       5.00       25         OUTLET    
CU_51            0.015      0.1        2.00       5.00       25         OUTLET    
CU_52            0.015      0.1        2.00       5.00       25         OUTLET    
CU_53            0.015      0.1        2.00       5.00       25         OUTLET    
CU_54            0.015      0.1        2.00       5.00       25         OUTLET    
CU_55            0.015      0.1        2.00       5.00       25         OUTLET    
CU_57            0.015      0.1        2.00       5.00       25         OUTLET    
CU_58            0.015      0.1        2.00       5.00       25         OUTLET    
CU_59            0.015      0.1        2.00       5.00       25         OUTLET    
CU_60            0.015      0.1        2.00       5.00       25         OUTLET    
CU_61            0.015      0.1        2.00       5.00       25         OUTLET    
CU_62            0.015      0.1        2.00       5.00       25         OUTLET    
CU_63            0.0150     0.1000     2.00       5.00       25         OUTLET    

[INFILTRATION]
;;Subcatchment   Param1     Param2     Param3     Param4     Param5    
;;-------------- ---------- ---------- ---------- ---------- ----------
CR05b            85.00      0.15       7                               
CR06a            85.00      0.15       7                               
CR06b            91.00      0.15       7                               
CR07             91.00      0.15       7                               
CU_01            91.00      0.15       7                               
CU_02            91.00      0.15       7                               
CU_03            91.00      0.15       7                               
CU_04            91.00      0.15       7                               
CU_05            91.00      0.15       7                               
CU_06            91.00      0.15       7                               
CU_07            91.00      0.15       7                               
CU_08            91.00      0.15       7                               
CU_09            91.00      0.15       7                               
CU_10            91.00      0.15       7                               
CU_11            91.00      0.15       7                               
CU_12            91.00      0.15       7                               
CU_13            91.00      0.15       7                               
CU_14            91.00      0.15       7                               
CU_15            91.00      0.15       7                               
CU_16            91.00      0.15       7                               
CU_17            91.00      0.15       7                               
CU_18            91.00      0.15       7                               
CU_19            91.00      0.15       7                               
CU_20            91.00      0.15       7                               
CU_21            91.00      0.15       7                               
CU_22            91.00      0.15       7                               
CU_23            91.00      0.15       7                               
CU_24            91.00      0.15       7                               
CU_25            91.00      0.15       7                               
CU_26            91.00      0.15       7                               
CU_27            91.00      0.15       7                               
CU_28            91.00      0.15       7                               
CU_29            91.00      0.15       7                               
CU_30            91.00      0.15       7                               
CU_31            91.00      0.15       7                               
CU_32            91.00      0.15       7                               
CU_33            91.00      0.15       7                               
CU_34            91.00      0.15       7                               
CU_35            91.00      0.15       7                               
CU_36            91.00      0.15       7                               
CU_37            91.00      0.15       7                               
CU_38            91.00      0.15       7                               
CU_39            91.00      0.15       7                               
CU_40            91.00      0.15       7                               
CU_41            91.00      0.15       7                               
CU_42            91.00      0.15       7                               
CU_43            91.00      0.15       7                               
CU_44            91.00      0.15       7                               
CU_45            91.00      0.15       7                               
CU_46            91.00      0.15       7                               
CU_47            91.00      0.15       7                               
CU_48            91.00      0.15       7                               
CU_49            91.00      0.15       7                               
CU_50            91.00      0.15       7                               
CU_51            91.00      0.15       7                               
CU_52            91.00      0.15       7                               
CU_53            91.00      0.15       7                               
CU_54            91.00      0.15       7                               
CU_55            91.00      0.15       7                               
CU_57            91.00      0.15       7                               
CU_58            91.00      0.15       7                               
CU_59            91.00      0.15       7                               
CU_60            91.00      0.15       7                               
CU_61            91.00      0.15       7                               
CU_62            91.00      0.15       7                               
CU_63            91.00      0.15       7                               

[JUNCTIONS]
;;Name           Elevation  MaxDepth   InitDepth  SurDepth   Aponded   
;;-------------- ---------- ---------- ---------- ---------- ----------
*Lï¿½_01         1637.85    1          0          0          0         
*Lï¿½_02         1637.82    0          0          0          0         
*Lï¿½02_01       1639.72    0          0          0          0         
*Lï¿½02_02(Alc16_ar) 1636.38    0          0          0          0         
*Lï¿½02_03(Alc16_ab) 1636.28    0          0          0          0         
*Lï¿½02_04(Alc17_ar) 1635.67    0          0          0          0         
*Lï¿½02_05(Alc17_ab) 1635.69    0          0          0          0         
*Lï¿½02_06       1635.576   0          0          0          0         
*Lï¿½02_07       1635.41    0          0          0          0         
*Lï¿½02_09(Alc18_ar) 1634.97    0.7        0          0          0         
*Lï¿½02_10(Alc18_ab) 1635       0          0          0          0         
*Lï¿½03_01       1639.05    1          0          0          0         
*Lï¿½03_02       1638.848   1          0          0          0         
*Lï¿½03_03       1638.48    1          0          0          0         
*Lï¿½03_04       1637.44    1          0          0          0         
*Lï¿½03_05       1636.91    1          0          0          0         
*Lï¿½03_C2_03    1640.01    1          0          0          0         
*Lï¿½03_C4_01    1641.83    1          0          0          0         
*Lï¿½03_C4_02    1641.01    1          0          0          0         
*Lï¿½03_C4_03    1639.81    1          0          0          0         
*Lï¿½03_C6_01    1639.87    1          0          0          0         
*Lï¿½03_C7_01    1639.23    1          0          0          0         
*ZN01_33         1637.69    0          0          0          0         
*ZN01_34         1637.63    0          0          0          0         
*ZN01_35         1637.567   0          0          0          0         
*ZN01_36         1637.452   0          0          0          0         
*ZS01_01(Alc01_ar) 1633.11    0          0          0          0         
*ZS01_02(Alc01_ab) 1632.98    0          0          0          0         
*ZS02_01(Alc02_ar) 1634.14    0          0          0          0         
Jun-228          1639.905   1          0          0          0         
Jun-234          1641.83    1          0          0          0         
Jun-235          1641.55    1          0          0          0         
Jun-237          1639.23    1          0          0          0         
Jun-238          1641.83    1          0          0          0         
Jun-244          1639.77    1          0          0          0         
Jun-247          1638.82    1          0          0          0         
Jun-248          1638.86    1          0          0          0         
Jun-249          1638.88    1          0          0          0         
Jun-251          1637.29    1          0          0          0         
Jun-263          1638.22    0          0          0          0         
Jun-264          1638.68    1          0          0          0         
Jun-265          1640.89    1          0          0          0         
Jun-266          1637.48    1          0          0          0         
Jun-267          1641.52    1          0          0          0         
Jun-268          1639.87    1          0          0          0         
Jun-269          1639.87    1          0          0          0         
Jun-270          1638.47    1          0          0          0         
Jun-272          1640.42    1          0          0          0         
Jun-273          1638.87    1          0          0          0         
Jun-275          1641.01    1          0          0          0         
Jun-276          1640.988   1          0          0          0         
Jun-311          1641.64    1          0          0          0         
Jun-312          1640.07    1          0          0          0         
Jun-315          1638.98    1          0          0          0         
Jun-316          1637.39    1          0          0          0         
Jun-317          1635.99    1          0          0          0         
Jun-318          1634.97    1          0          0          0         
Jun-319          1634.72    1          0          0          0         
Jun-320          1634.46    1          0          0          0         
Jun-321          1634.26    1          0          0          0         
Jun-322          1634.25    1          0          0          0         
Jun-323          1634.27    1          0          0          0         
Jun-324          1634.43    1          0          0          0         
Jun-325          1634.30    1          0          0          0         
Jun-326          1634.43    1          0          0          0         
Jun-327          1634.49    1          0          0          0         
Jun-328          1634.22    1          0          0          0         
Jun-329          1634.14    1          0          0          0         
Jun-330          1634.35    1          0          0          0         
Jun-331          1634.09    1          0          0          0         
Jun-332          1634.13    1          0          0          0         
Jun-333          1633.16    1          0          0          0         
Jun-334          1633.80    1          0          0          0         
Jun-335          1633.65    1          0          0          0         
Jun-336          1633.52    1          0          0          0         
Jun-337          1633.43    1          0          0          0         
Jun-338          1633.39    1          0          0          0         
Jun-339          1633.38    1          0          0          0         
Jun-340          1633.29    1          0          0          0         
Jun-341          1637.2     1          0          0          0         
Jun-342          1634.95    1          0          0          0         
Jun-344          1634.86    1          0          0          0         
Jun-347          1639.19    1          0          0          0         
Jun-348          1634.81    1          0          0          0         
Jun-350          1636.14    1          0          0          0         
Jun-351          1639.12    1          0          0          0         
Jun-353          1640.61    1          0          0          0         
Jun-354          0          1          0          0          0         
Jun-355          1639.00    1          0          0          0         
Jun-356          1640.80    0.3        0          0          0         
Jun-357          1640.53    1          0          0          0         
Jun-358          1639.50    1          0          0          0         
Jun-359          1639.26    1          0          0          0         
Jun-360          1638.46    1          0          0          0         
Jun-361          1642.51    1          0          0          0         
Jun-362          1637.13    1          0          0          0         
Jun-363          1636.02    1          0          0          0         
Jun-365          1635.90    1          0          0          0         
Jun-366          1635.81    1          0          0          0         
Jun-367          1635.71    1          0          0          0         
Jun-368          1635.64    1          0          0          0         
Jun-369          1641.11    1          0          0          0         
Jun-370          1634.87    1          0          0          0         

[OUTFALLS]
;;Name           Elevation  Type       Stage Data       Gated    Route To        
;;-------------- ---------- ---------- ---------------- -------- ----------------
*ZN01_37(salida) 1637.309   NORMAL                      NO                       
;Cota_Falsa
*ZS01_03(salida) 1633.217   NORMAL                      NO                       
;Cota_Falsa
*ZS02_03         1634.058   NORMAL                      NO                       

[CONDUITS]
;;Name           From Node        To Node          Length     Roughness  InOffset   OutOffset  InitFlow   MaxFlow   
;;-------------- ---------------- ---------------- ---------- ---------- ---------- ---------- ---------- ----------
/8_de_Abril_Norte_01 *Lï¿½02_02(Alc16_ar) *Lï¿½02_03(Alc16_ab) 6.99       0.015      0          0          0          0         
/8_de_Abril_Norte_02 *Lï¿½02_03(Alc16_ab) Jun-363          12.82      0.032      0          0          0          0         
/8_de_Abril_Norte_03 *Lï¿½02_04(Alc17_ar) *Lï¿½02_05(Alc17_ab) 7.51       0.015      0          0          0          0         
/8_de_Abril_Norte_04 *Lï¿½02_05(Alc17_ab) *Lï¿½02_06       9.48       0.032      0          0          0          0         
/8_de_Abril_Norte_05 *Lï¿½02_06       Jun-367          8.96       0.032      0          0          0          0         
/8_de_Abril_Norte_06 *Lï¿½02_07       *Lï¿½02_09(Alc18_ar) 8.08       0.032      0          0          0          0         
/8_de_Abril_Norte_08 *Lï¿½02_09(Alc18_ar) *Lï¿½02_10(Alc18_ab) 16.36      0.025      0          0          0          0         
/Baden_Los_ï¿½ires_01 *Lï¿½03_01       *Lï¿½03_02       61.16      0.032      0          0          0          0         
/Baden_Los_Ñires_02 *Lï¿½03_02       *Lï¿½03_03       63.36      0.032      0          0          0          0         
/Baden_Los_ï¿½ires_03 Jun-263          *Lï¿½03_04       67.66      0.032      0          0          0          0         
/Baden_Los_ï¿½ires_04 *Lï¿½03_04       *Lï¿½03_05       63.30      0.032      0          0          0          0         
/Baden_Los_ï¿½ires_05 *Lï¿½03_05       *Lï¿½02_09(Alc18_ar) 71.25      0.032      0          0          0          0         